Version 4
SHEET 1 3736 1960
WIRE -960 48 -960 16
WIRE -960 48 -1024 48
WIRE -816 48 -960 48
WIRE -656 48 -752 48
WIRE -544 48 -544 -48
WIRE -544 48 -656 48
WIRE -432 48 -544 48
WIRE 128 48 -368 48
WIRE 912 48 128 48
WIRE 1472 48 912 48
WIRE 2432 48 1472 48
WIRE 2720 48 2432 48
WIRE 3120 48 2720 48
WIRE 912 96 912 48
WIRE 3120 96 3120 48
WIRE -1024 160 -1024 48
WIRE 3120 176 3120 160
WIRE -656 192 -656 48
WIRE -656 192 -864 192
WIRE -160 192 -656 192
WIRE 128 208 128 48
WIRE 1808 256 672 256
WIRE 2080 256 1808 256
WIRE 2880 256 2080 256
WIRE -864 272 -864 192
WIRE -656 272 -656 192
WIRE 672 336 672 256
WIRE 2720 336 2720 48
WIRE -864 368 -864 336
WIRE -768 368 -864 368
WIRE -656 368 -656 336
WIRE -656 368 -768 368
WIRE -768 416 -768 368
WIRE 1472 416 1472 48
WIRE 1472 416 1040 416
WIRE 2432 416 2432 48
WIRE 2432 416 2000 416
WIRE 2720 416 2512 416
WIRE 2736 416 2720 416
WIRE 128 432 128 288
WIRE 1472 480 1472 416
WIRE 1472 480 1392 480
WIRE 2432 480 2432 416
WIRE 2432 480 2352 480
WIRE 128 528 128 512
WIRE 384 528 128 528
WIRE 672 528 672 400
WIRE 672 528 384 528
WIRE 912 544 912 176
WIRE 1168 544 912 544
WIRE 1568 544 1392 544
WIRE 2080 544 2080 256
WIRE 2128 544 2080 544
WIRE 2512 544 2512 416
WIRE 2512 544 2352 544
WIRE 2576 544 2512 544
WIRE 2752 544 2656 544
WIRE 2880 544 2880 256
WIRE 2880 544 2832 544
WIRE 672 560 672 528
WIRE 1168 608 1056 608
WIRE 1568 608 1568 544
WIRE 1568 608 1392 608
WIRE 2128 608 1920 608
WIRE 2880 608 2880 544
WIRE 2880 608 2352 608
WIRE 672 672 672 624
WIRE 1040 672 1040 416
WIRE 1168 672 1040 672
WIRE 1456 672 1392 672
WIRE 2000 672 2000 416
WIRE 2128 672 2000 672
WIRE 2432 672 2352 672
WIRE 1056 736 1056 608
WIRE 1056 736 608 736
WIRE 384 784 384 528
WIRE 1568 784 1568 608
WIRE 1568 784 384 784
WIRE -160 816 -160 192
WIRE 208 816 -160 816
WIRE 1456 816 1456 672
WIRE 2432 832 2432 672
WIRE 208 896 208 816
WIRE -160 912 -160 816
WIRE 0 912 -160 912
WIRE 0 928 0 912
WIRE 1456 928 1456 880
WIRE 608 960 608 736
WIRE -160 992 -160 912
WIRE 912 992 912 544
WIRE 1280 992 912 992
WIRE 1920 992 1920 608
WIRE 1920 992 1344 992
WIRE 0 1040 0 1008
WIRE 0 1040 -96 1040
WIRE 64 1040 0 1040
WIRE 208 1040 208 976
WIRE 208 1040 144 1040
WIRE -912 1120 -1072 1120
WIRE -160 1120 -160 1088
WIRE -160 1120 -832 1120
WIRE 208 1120 208 1040
WIRE 432 1168 272 1168
WIRE 608 1168 608 1040
WIRE 608 1168 432 1168
WIRE 208 1248 208 1216
WIRE 432 1248 432 1168
WIRE -1072 1280 -1072 1120
WIRE -160 1280 -160 1120
WIRE -1072 1408 -1072 1344
WIRE -688 1424 -688 1360
WIRE -448 1424 -688 1424
WIRE -448 1456 -448 1424
WIRE -688 1472 -688 1424
WIRE -160 1504 -160 1360
WIRE -160 1504 -384 1504
WIRE -112 1504 -160 1504
WIRE 144 1504 -112 1504
WIRE -112 1536 -112 1504
WIRE 144 1552 144 1504
WIRE -688 1584 -688 1552
WIRE -448 1600 -448 1552
FLAG -1024 240 0
FLAG 1456 928 0
FLAG 672 672 0
FLAG 208 1248 0
FLAG -1072 1408 0
FLAG -768 416 0
FLAG 144 1616 0
FLAG -112 1616 0
FLAG -448 1600 0
FLAG -688 1584 0
FLAG 432 1328 0
FLAG 3120 176 0
FLAG 1808 320 0
FLAG 2432 896 0
FLAG 1168 480 0
FLAG 2128 480 0
SYMBOL voltage -1024 144 R0
WINDOW 123 0 0 Left 0
WINDOW 39 0 0 Left 0
SYMATTR InstName Battery
SYMATTR Value 6
SYMBOL schottky -816 64 R270
WINDOW 0 32 32 VTop 2
WINDOW 3 0 32 VBottom 2
SYMATTR InstName D1
SYMATTR Value 1N5819
SYMATTR Description Diode
SYMATTR Type diode
SYMBOL zener -432 64 R270
WINDOW 0 32 32 VTop 2
WINDOW 3 0 32 VBottom 2
SYMATTR InstName D2
SYMATTR Value 1N4006
SYMATTR Description Diode
SYMATTR Type diode
SYMBOL polcap 3104 96 R0
WINDOW 3 24 56 Left 2
SYMATTR Value 470µ
SYMATTR InstName C1
SYMATTR Description Capacitor
SYMATTR Type cap
SYMATTR SpiceLine V=16 Irms=395m Rser=0.2 Lser=0 mfg="Nichicon" pn="UPR1C471MPH" type="Al electrolytic"
SYMBOL res 2704 320 R0
SYMATTR InstName R1
SYMATTR Value 18k
SYMATTR SpiceLine tol=5
SYMBOL res 2672 528 R90
WINDOW 0 0 56 VBottom 2
WINDOW 3 32 56 VTop 2
SYMATTR InstName R2
SYMATTR Value 470k
SYMATTR SpiceLine tol=5
SYMBOL res 2736 560 R270
WINDOW 0 32 56 VTop 2
WINDOW 3 0 56 VBottom 2
SYMATTR InstName R3
SYMATTR Value 2200k
SYMATTR SpiceLine tol=5
SYMBOL cap 1792 256 R0
SYMATTR InstName C3
SYMATTR Value .33µ
SYMATTR SpiceLine V=100
SYMBOL cap 656 336 R0
SYMATTR InstName C2
SYMATTR Value .01µ
SYMBOL cap 1440 816 R0
SYMATTR InstName C4
SYMATTR Value .1µ
SYMATTR SpiceLine V=100
SYMBOL res 112 192 R0
SYMATTR InstName R4
SYMATTR Value 4.7k
SYMATTR SpiceLine tol=5
SYMBOL res 112 416 R0
SYMATTR InstName R5
SYMATTR Value 150k
SYMATTR SpiceLine tol=5
SYMBOL cap 656 560 R0
SYMATTR InstName C5
SYMATTR Value .1µ
SYMATTR SpiceLine V=100
SYMBOL res 416 1232 R0
SYMATTR InstName R6
SYMATTR Value 220
SYMATTR SpiceLine tol=5
SYMBOL res 592 944 R0
SYMATTR InstName R7
SYMATTR Value 220
SYMATTR SpiceLine tol=5
SYMBOL npn 272 1120 M0
SYMATTR InstName Q1
SYMATTR Value 2N4401
SYMBOL res 896 80 R0
SYMATTR InstName R8
SYMATTR Value 18k
SYMATTR SpiceLine tol=5
SYMBOL cap 1280 1008 R270
WINDOW 0 32 32 VTop 2
WINDOW 3 0 32 VBottom 2
SYMATTR InstName C6
SYMATTR Value .01µ
SYMBOL cap 2416 832 R0
SYMATTR InstName C7
SYMATTR Value .1µ
SYMATTR SpiceLine V=100
SYMBOL res 192 880 R0
SYMATTR InstName R9
SYMATTR Value 220
SYMATTR SpiceLine tol=5
SYMBOL pnp -96 1088 R180
SYMATTR InstName Q2
SYMATTR Value 2N4403
SYMBOL res -128 1520 R0
SYMATTR InstName R10
SYMATTR Value 220
SYMATTR SpiceLine tol=5
SYMBOL res 160 1024 R90
WINDOW 0 0 56 VBottom 2
WINDOW 3 32 56 VTop 2
SYMATTR InstName R11
SYMATTR Value 220
SYMATTR SpiceLine tol=5
SYMBOL res -176 1264 R0
SYMATTR InstName R12
SYMATTR Value 10
SYMATTR SpiceLine tol=5
SYMBOL npn -384 1456 M0
SYMATTR InstName Q3
SYMATTR Value MJE13005
SYMBOL Misc\\xvaristor -704 1456 R0
SYMATTR InstName V
SYMATTR Prefix V175LA10A
SYMATTR Value 175LA10
SYMBOL polcap -880 272 R0
WINDOW 3 24 56 Left 2
SYMATTR Value 100µ
SYMATTR InstName C8
SYMATTR Description Capacitor
SYMATTR Type cap
SYMATTR SpiceLine V=25 Irms=145m Rser=0.62 Lser=0 mfg="Nichicon" pn="UPR1E101MPH" type="Al electrolytic"
SYMBOL cap -672 272 R0
SYMATTR InstName C9
SYMATTR Value .1µ
SYMATTR SpiceLine V=100
SYMBOL res -16 912 R0
SYMATTR InstName R13
SYMATTR Value 220
SYMATTR SpiceLine tol=5
SYMBOL zener 160 1616 R180
WINDOW 0 24 64 Left 2
WINDOW 3 24 0 Left 2
SYMATTR InstName D3
SYMATTR Value 1N4006
SYMATTR Description Diode
SYMATTR Type diode
SYMBOL res -928 1136 R270
WINDOW 0 32 56 VTop 2
WINDOW 3 0 56 VBottom 2
SYMATTR InstName R14
SYMATTR Value 220
SYMATTR SpiceLine tol=5
SYMBOL LED -1088 1280 R0
SYMATTR InstName Light
SYMATTR Value 1N4006
SYMBOL Misc\\NE555 1280 576 R0
SYMATTR InstName U1
SYMBOL Misc\\NE555 2240 576 R0
SYMATTR InstName U3
TEXT -808 1344 Left 2 ;Transformer primary wire
TEXT -672 -64 Left 2 ;Transformer primary wire
TEXT -1008 -8 Left 2 ;Toggle Switch
TEXT -1096 1640 Left 2 !.tran 0 10 0 .1
TEXT 968 1560 Left 2 !.include Varistors_models.txt
